Version 4
SHEET 1 1096 768
WIRE 880 -224 -80 -224
WIRE 208 -112 80 -112
WIRE 448 -112 208 -112
WIRE 464 -112 464 -128
WIRE 464 -112 448 -112
WIRE 736 -112 464 -112
WIRE 80 -48 80 -112
WIRE 208 -48 208 -112
WIRE 240 -48 208 -48
WIRE 448 -48 448 -112
WIRE 448 -48 416 -48
WIRE 736 -48 736 -112
WIRE 736 -48 704 -48
WIRE 208 -32 208 -48
WIRE 240 -32 208 -32
WIRE 336 -32 256 -32
WIRE 400 -32 336 -32
WIRE 448 -32 448 -48
WIRE 448 -32 416 -32
WIRE 688 -32 528 -32
WIRE 736 -32 736 -48
WIRE 736 -32 704 -32
WIRE 240 -16 224 -16
WIRE 432 -16 416 -16
WIRE 224 48 224 -16
WIRE 336 48 336 -32
WIRE 336 48 224 48
WIRE 432 48 432 -16
WIRE 528 48 528 -32
WIRE 528 48 432 48
WIRE 576 48 528 48
WIRE 704 48 704 -16
WIRE 704 48 640 48
WIRE 704 96 704 48
WIRE 784 96 704 96
WIRE 880 96 880 -224
WIRE 880 96 784 96
WIRE 1008 96 880 96
WIRE 224 112 224 48
WIRE 224 112 208 112
WIRE 432 112 432 48
WIRE 448 112 432 112
WIRE -80 128 -80 -224
WIRE 192 128 -80 128
WIRE 240 128 208 128
WIRE 448 128 416 128
WIRE 528 128 464 128
WIRE 784 128 784 96
WIRE 224 144 208 144
WIRE 240 144 240 128
WIRE 240 144 224 144
WIRE 416 144 416 128
WIRE 432 144 416 144
WIRE 448 144 432 144
WIRE 224 176 224 144
WIRE 336 176 224 176
WIRE 432 176 432 144
WIRE 432 176 336 176
WIRE 528 208 528 128
WIRE 528 208 -176 208
WIRE 336 224 336 176
WIRE 336 224 320 224
WIRE 784 224 784 192
WIRE -176 240 -176 208
WIRE 272 240 256 240
WIRE 304 240 272 240
WIRE 352 240 320 240
WIRE 704 240 704 96
WIRE 336 256 320 256
WIRE 352 256 352 240
WIRE 352 256 336 256
WIRE 688 256 608 256
WIRE 736 256 704 256
WIRE 256 272 176 272
WIRE 736 272 736 256
WIRE 736 272 704 272
WIRE 80 288 80 32
WIRE 176 288 176 272
WIRE 176 288 80 288
WIRE 176 304 176 288
WIRE 208 304 176 304
WIRE 208 320 176 320
WIRE 256 320 256 272
WIRE 256 320 224 320
WIRE 272 320 272 240
WIRE 272 320 256 320
WIRE 336 320 336 256
WIRE 496 320 336 320
WIRE 704 320 704 272
WIRE 704 320 496 320
WIRE 176 336 176 320
WIRE 192 336 176 336
WIRE 208 336 192 336
WIRE 192 384 192 336
WIRE 336 384 336 320
WIRE 336 384 192 384
FLAG 464 -128 Vdd
IOPIN 464 -128 In
FLAG 256 240 Vb
IOPIN 256 240 In
FLAG 1008 96 Vo
IOPIN 1008 96 Out
FLAG 256 576 Vdd
IOPIN 256 576 In
FLAG 256 656 0
FLAG 608 256 Vb
IOPIN 608 256 In
FLAG 496 320 Vss
IOPIN 496 320 In
FLAG 416 656 0
FLAG 416 576 Vss
IOPIN 416 576 In
FLAG 784 224 0
FLAG -176 320 0
SYMBOL pmos65 224 -32 M0
WINDOW 3 2 16 Left 0
SYMATTR Value W=10u,L=1u
SYMATTR InstName X1
SYMBOL pmos65 432 -32 R0
WINDOW 3 6 16 Left 0
SYMATTR Value W=10u,L=1u
SYMATTR InstName X2
SYMBOL pmos65 720 -32 R0
WINDOW 3 0 16 Left 0
SYMATTR Value W=90u,L=1u
SYMATTR InstName X3
SYMBOL nmos65 224 128 R0
WINDOW 3 5 23 Left 0
SYMATTR Value W=3u,L=1u
SYMATTR InstName X4
SYMBOL nmos65 432 128 M0
WINDOW 3 2 24 Left 0
SYMATTR Value W=3u,L=1u
SYMATTR InstName X5
SYMBOL nmos65 720 256 R0
WINDOW 3 -11 -13 Left 0
SYMATTR Value W=24u,L=1u
SYMATTR InstName X6
SYMBOL nmos65 336 240 R0
WINDOW 3 4 26 Left 0
SYMATTR Value W=6u,L=1u
SYMATTR InstName X7
SYMBOL cap 640 32 R90
WINDOW 0 0 32 VBottom 2
WINDOW 3 32 32 VTop 2
SYMATTR InstName C1
SYMATTR Value 3p
SYMBOL voltage 256 560 R0
WINDOW 123 0 0 Left 0
WINDOW 39 0 0 Left 0
SYMATTR InstName V1
SYMATTR Value 1.1
SYMBOL voltage 416 672 R180
WINDOW 0 24 96 Left 2
WINDOW 3 24 16 Left 2
WINDOW 123 0 0 Left 0
WINDOW 39 0 0 Left 0
SYMATTR InstName V2
SYMATTR Value 1.1
SYMBOL current 80 -48 R0
WINDOW 3 -84 47 Left 2
WINDOW 123 0 0 Left 0
WINDOW 39 0 0 Left 0
SYMATTR Value 30µ
SYMATTR InstName I1
SYMBOL nmos65 192 320 M0
WINDOW 3 20 13 Left 0
SYMATTR Value W=6u,L=1u
SYMATTR InstName X8
SYMBOL cap 768 128 R0
SYMATTR InstName C2
SYMATTR Value 10p
SYMBOL voltage -176 224 R0
WINDOW 3 24 44 Left 2
WINDOW 123 0 0 Left 0
WINDOW 39 0 0 Left 0
SYMATTR InstName V3
SYMATTR Value 0
TEXT 120 728 Left 2 !.include 65nm_NMOS_bulk.pm
TEXT 120 752 Left 2 !.include 65nm_PMOS_bulk.pm
TEXT -130 468 Left 2 !.dc V3 0 1.1 1m
