Version 4
SHEET 1 2488 680
WIRE 2000 -512 1760 -512
WIRE 2016 -512 2016 -576
WIRE 2016 -512 2000 -512
WIRE 2288 -512 2016 -512
WIRE 1760 -448 1760 -512
WIRE 1792 -448 1760 -448
WIRE 2000 -448 2000 -512
WIRE 2000 -448 1968 -448
WIRE 2288 -448 2288 -512
WIRE 2288 -448 2256 -448
WIRE 1760 -432 1760 -448
WIRE 1792 -432 1760 -432
WIRE 1888 -432 1808 -432
WIRE 1952 -432 1888 -432
WIRE 2000 -432 2000 -448
WIRE 2000 -432 1968 -432
WIRE 2240 -432 2080 -432
WIRE 2288 -432 2288 -448
WIRE 2288 -432 2256 -432
WIRE 1792 -416 1776 -416
WIRE 1984 -416 1968 -416
WIRE 1776 -352 1776 -416
WIRE 1888 -352 1888 -432
WIRE 1888 -352 1776 -352
WIRE 1984 -352 1984 -416
WIRE 2080 -352 2080 -432
WIRE 2080 -352 1984 -352
WIRE 2128 -352 2080 -352
WIRE 2256 -352 2256 -416
WIRE 2256 -352 2192 -352
WIRE 2256 -304 2256 -352
WIRE 2336 -304 2256 -304
WIRE 2400 -304 2336 -304
WIRE 1776 -288 1776 -352
WIRE 1776 -288 1760 -288
WIRE 1984 -288 1984 -352
WIRE 2000 -288 1984 -288
WIRE 1744 -272 1696 -272
WIRE 1792 -272 1760 -272
WIRE 2000 -272 1968 -272
WIRE 2064 -272 2016 -272
WIRE 2336 -272 2336 -304
WIRE 1776 -256 1760 -256
WIRE 1792 -256 1792 -272
WIRE 1792 -256 1776 -256
WIRE 1968 -256 1968 -272
WIRE 1984 -256 1968 -256
WIRE 2000 -256 1984 -256
WIRE 1776 -224 1776 -256
WIRE 1888 -224 1776 -224
WIRE 1984 -224 1984 -256
WIRE 1984 -224 1888 -224
WIRE 1888 -176 1888 -224
WIRE 1888 -176 1872 -176
WIRE 2336 -176 2336 -208
WIRE 1824 -160 1808 -160
WIRE 1856 -160 1824 -160
WIRE 1904 -160 1872 -160
WIRE 2256 -160 2256 -304
WIRE 1888 -144 1872 -144
WIRE 1904 -144 1904 -160
WIRE 1904 -144 1888 -144
WIRE 2240 -144 2160 -144
WIRE 2288 -144 2256 -144
WIRE 1808 -128 1728 -128
WIRE 2288 -128 2288 -144
WIRE 2288 -128 2256 -128
WIRE 1728 -96 1728 -128
WIRE 1728 -96 1712 -96
WIRE 1760 -96 1728 -96
WIRE 1664 -80 1664 -96
WIRE 1712 -80 1712 -96
WIRE 1712 -80 1664 -80
WIRE 1760 -80 1728 -80
WIRE 1808 -80 1808 -128
WIRE 1808 -80 1776 -80
WIRE 1824 -80 1824 -160
WIRE 1824 -80 1808 -80
WIRE 1888 -80 1888 -144
WIRE 2048 -80 1888 -80
WIRE 2256 -80 2256 -128
WIRE 2256 -80 2048 -80
WIRE 1728 -64 1728 -80
WIRE 1744 -64 1728 -64
WIRE 1760 -64 1744 -64
WIRE 1744 -16 1744 -64
WIRE 1888 -16 1888 -80
WIRE 1888 -16 1744 -16
WIRE 2160 144 1984 144
WIRE 2048 224 1984 224
FLAG 2016 -576 Vdd
IOPIN 2016 -576 In
FLAG 1696 -272 V1
IOPIN 1696 -272 In
FLAG 2064 -272 V2
IOPIN 2064 -272 In
FLAG 1808 -160 Vb
IOPIN 1808 -160 In
FLAG 2400 -304 Vo
IOPIN 2400 -304 Out
FLAG 1808 176 Vdd
IOPIN 1808 176 In
FLAG 1984 144 V1
IOPIN 1984 144 In
FLAG 1808 256 0
FLAG 2160 -144 Vb
IOPIN 2160 -144 In
FLAG 2048 -80 Vss
IOPIN 2048 -80 In
FLAG 2336 224 0
FLAG 2336 144 Vss
IOPIN 2336 144 In
FLAG 1664 -176 Vdd
IOPIN 1664 -176 In
FLAG 2336 -176 0
FLAG 1984 224 V2
IOPIN 1984 224 In
FLAG 2048 304 0
FLAG 2160 224 0
SYMBOL pmos65 1776 -432 M0
WINDOW 3 2 16 Left 0
SYMATTR Value W=10u,L=1u
SYMATTR InstName X9
SYMBOL pmos65 1984 -432 R0
WINDOW 3 6 16 Left 0
SYMATTR Value W=10u,L=1u
SYMATTR InstName X10
SYMBOL pmos65 2272 -432 R0
WINDOW 3 0 16 Left 0
SYMATTR Value W=90u,L=1u
SYMATTR InstName X11
SYMBOL nmos65 1776 -272 R0
WINDOW 3 5 23 Left 0
SYMATTR Value W=3u,L=1u
SYMATTR InstName X12
SYMBOL nmos65 1984 -272 M0
WINDOW 3 2 24 Left 0
SYMATTR Value W=3u,L=1u
SYMATTR InstName X13
SYMBOL nmos65 2272 -144 R0
WINDOW 3 -11 -13 Left 0
SYMATTR Value W=24u,L=1u
SYMATTR InstName X14
SYMBOL nmos65 1888 -160 R0
WINDOW 3 4 26 Left 0
SYMATTR Value W=6u,L=1u
SYMATTR InstName X15
SYMBOL cap 2192 -368 R90
WINDOW 0 0 32 VBottom 2
WINDOW 3 32 32 VTop 2
SYMATTR InstName C3
SYMATTR Value 3p
SYMBOL voltage 1808 160 R0
WINDOW 123 0 0 Left 0
WINDOW 39 0 0 Left 0
SYMATTR InstName V4
SYMATTR Value 1.1
SYMBOL voltage 2336 240 R180
WINDOW 0 24 96 Left 2
WINDOW 3 24 16 Left 2
WINDOW 123 0 0 Left 0
WINDOW 39 0 0 Left 0
SYMATTR InstName V8
SYMATTR Value 1.1
SYMBOL current 1664 -176 R0
WINDOW 3 -84 47 Left 2
WINDOW 123 0 0 Left 0
WINDOW 39 0 0 Left 0
SYMATTR Value 30µ
SYMATTR InstName I2
SYMBOL nmos65 1744 -80 M0
WINDOW 3 20 13 Left 0
SYMATTR Value W=6u,L=1u
SYMATTR InstName X16
SYMBOL cap 2320 -272 R0
SYMATTR InstName C4
SYMATTR Value 10p
SYMBOL voltage 2048 208 R0
WINDOW 3 24 152 Left 2
WINDOW 123 24 124 Left 2
WINDOW 39 0 0 Left 0
SYMATTR Value 0.55
SYMATTR Value2 AC 0.5
SYMATTR InstName V1
SYMBOL voltage 2160 128 R0
WINDOW 123 24 124 Left 2
WINDOW 39 0 0 Left 0
SYMATTR Value2 AC -0.5
SYMATTR InstName V2
SYMATTR Value 0.55
TEXT 1672 328 Left 2 !.include 65nm_NMOS_bulk.pm
TEXT 1672 352 Left 2 !.include 65nm_PMOS_bulk.pm
TEXT 1576 200 Left 2 !.ac dec 100 1 1G
