Version 4
SHEET 1 880 760
WIRE 288 16 48 16
WIRE 304 16 304 -48
WIRE 304 16 288 16
WIRE 576 16 304 16
WIRE 48 80 48 16
WIRE 80 80 48 80
WIRE 288 80 288 16
WIRE 288 80 256 80
WIRE 576 80 576 16
WIRE 576 80 544 80
WIRE 48 96 48 80
WIRE 80 96 48 96
WIRE 176 96 96 96
WIRE 240 96 176 96
WIRE 288 96 288 80
WIRE 288 96 256 96
WIRE 528 96 368 96
WIRE 576 96 576 80
WIRE 576 96 544 96
WIRE 80 112 64 112
WIRE 272 112 256 112
WIRE 64 176 64 112
WIRE 176 176 176 96
WIRE 176 176 64 176
WIRE 272 176 272 112
WIRE 368 176 368 96
WIRE 368 176 272 176
WIRE 416 176 368 176
WIRE 544 176 544 112
WIRE 544 176 480 176
WIRE 544 224 544 176
WIRE 624 224 544 224
WIRE 688 224 624 224
WIRE 64 240 64 176
WIRE 64 240 48 240
WIRE 272 240 272 176
WIRE 288 240 272 240
WIRE 32 256 -16 256
WIRE 80 256 48 256
WIRE 288 256 256 256
WIRE 352 256 304 256
WIRE 624 256 624 224
WIRE 64 272 48 272
WIRE 80 272 80 256
WIRE 80 272 64 272
WIRE 256 272 256 256
WIRE 272 272 256 272
WIRE 288 272 272 272
WIRE 64 304 64 272
WIRE 176 304 64 304
WIRE 272 304 272 272
WIRE 272 304 176 304
WIRE 176 352 176 304
WIRE 176 352 160 352
WIRE 624 352 624 320
WIRE 112 368 96 368
WIRE 144 368 112 368
WIRE 192 368 160 368
WIRE 544 368 544 224
WIRE 176 384 160 384
WIRE 192 384 192 368
WIRE 192 384 176 384
WIRE 528 384 448 384
WIRE 576 384 544 384
WIRE 96 400 16 400
WIRE 576 400 576 384
WIRE 576 400 544 400
WIRE 16 432 16 400
WIRE 16 432 0 432
WIRE 48 432 16 432
WIRE -48 448 -48 432
WIRE 0 448 0 432
WIRE 0 448 -48 448
WIRE 48 448 16 448
WIRE 96 448 96 400
WIRE 96 448 64 448
WIRE 112 448 112 368
WIRE 112 448 96 448
WIRE 176 448 176 384
WIRE 336 448 176 448
WIRE 544 448 544 400
WIRE 544 448 336 448
WIRE 16 464 16 448
WIRE 32 464 16 464
WIRE 48 464 32 464
WIRE 32 512 32 464
WIRE 176 512 176 448
WIRE 176 512 32 512
FLAG 304 -48 Vdd
IOPIN 304 -48 In
FLAG -16 256 V1
IOPIN -16 256 In
FLAG 352 256 V2
IOPIN 352 256 In
FLAG 96 368 Vb
IOPIN 96 368 In
FLAG 688 224 Vo
IOPIN 688 224 Out
FLAG 64 592 Vdd
IOPIN 64 592 In
FLAG 224 592 V1
IOPIN 224 592 In
FLAG 384 592 V2
IOPIN 384 592 In
FLAG 384 672 0
FLAG 64 672 0
FLAG 448 384 Vb
IOPIN 448 384 In
FLAG 336 448 Vss
IOPIN 336 448 In
FLAG 576 672 0
FLAG 576 592 Vss
IOPIN 576 592 In
FLAG -48 352 Vdd
IOPIN -48 352 In
FLAG 624 352 0
FLAG 224 672 Vo
IOPIN 224 672 Out
SYMBOL pmos65 64 96 M0
WINDOW 3 2 16 Left 0
SYMATTR InstName X1
SYMATTR Value W=30u,L=1u
SYMBOL pmos65 272 96 R0
WINDOW 3 6 16 Left 0
SYMATTR InstName X2
SYMATTR Value W=30u,L=1u
SYMBOL pmos65 560 96 R0
WINDOW 3 0 16 Left 0
SYMATTR InstName X3
SYMATTR Value W=85.0375u,L=1u
SYMBOL nmos65 64 256 R0
WINDOW 3 5 23 Left 0
SYMATTR InstName X4
SYMATTR Value W=3u,L=1u
SYMBOL nmos65 272 256 M0
WINDOW 3 2 24 Left 0
SYMATTR InstName X5
SYMATTR Value W=3u,L=1u
SYMBOL nmos65 560 384 R0
WINDOW 3 -11 -13 Left 0
SYMATTR InstName X6
SYMATTR Value W=24u,L=1u
SYMBOL nmos65 176 368 R0
WINDOW 3 4 26 Left 0
SYMATTR InstName X7
SYMATTR Value W=6u,L=1u
SYMBOL cap 480 160 R90
WINDOW 0 0 32 VBottom 2
WINDOW 3 32 32 VTop 2
SYMATTR InstName C1
SYMATTR Value 3p
SYMBOL voltage 64 576 R0
WINDOW 123 0 0 Left 0
WINDOW 39 0 0 Left 0
SYMATTR InstName V1
SYMATTR Value 1.1
SYMBOL voltage 224 576 R0
WINDOW 3 0 163 Left 2
WINDOW 123 -60 159 Left 2
WINDOW 39 0 0 Left 0
SYMATTR InstName V2
SYMATTR Value SINE(0.55)
SYMATTR Value2 AC 1
SYMBOL voltage 384 576 R0
WINDOW 3 19 144 Left 2
WINDOW 123 24 124 Left 2
WINDOW 39 0 0 Left 0
SYMATTR InstName V3
SYMATTR Value SINE(0.55)
SYMATTR Value2 AC 1
SYMBOL voltage 576 688 R180
WINDOW 0 24 96 Left 2
WINDOW 3 24 16 Left 2
WINDOW 123 0 0 Left 0
WINDOW 39 0 0 Left 0
SYMATTR InstName V4
SYMATTR Value 1.1
SYMBOL current -48 352 R0
WINDOW 3 -84 47 Left 2
WINDOW 123 0 0 Left 0
WINDOW 39 0 0 Left 0
SYMATTR InstName I1
SYMATTR Value 30µ
SYMBOL nmos65 32 448 M0
WINDOW 3 20 13 Left 0
SYMATTR InstName X8
SYMATTR Value W=6u,L=1u
SYMBOL cap 608 256 R0
SYMATTR InstName C2
SYMATTR Value 10p
TEXT 216 496 Left 2 !.include 65nm_NMOS_bulk.pm
TEXT 216 520 Left 2 !.include 65nm_PMOS_bulk.pm
TEXT -134 728 Left 2 !.ac dec 100 1 1G
