Version 4
SHEET 1 1048 680
WIRE 832 -480 -128 -480
WIRE 160 -368 32 -368
WIRE 400 -368 160 -368
WIRE 416 -368 416 -384
WIRE 416 -368 400 -368
WIRE 688 -368 416 -368
WIRE 32 -304 32 -368
WIRE 160 -304 160 -368
WIRE 192 -304 160 -304
WIRE 400 -304 400 -368
WIRE 400 -304 368 -304
WIRE 688 -304 688 -368
WIRE 688 -304 656 -304
WIRE 160 -288 160 -304
WIRE 192 -288 160 -288
WIRE 288 -288 208 -288
WIRE 352 -288 288 -288
WIRE 400 -288 400 -304
WIRE 400 -288 368 -288
WIRE 640 -288 480 -288
WIRE 688 -288 688 -304
WIRE 688 -288 656 -288
WIRE 192 -272 176 -272
WIRE 384 -272 368 -272
WIRE 176 -208 176 -272
WIRE 288 -208 288 -288
WIRE 288 -208 176 -208
WIRE 384 -208 384 -272
WIRE 480 -208 480 -288
WIRE 480 -208 384 -208
WIRE 528 -208 480 -208
WIRE 656 -208 656 -272
WIRE 656 -208 592 -208
WIRE 656 -160 656 -208
WIRE 736 -160 656 -160
WIRE 832 -160 832 -480
WIRE 832 -160 736 -160
WIRE 960 -160 832 -160
WIRE 176 -144 176 -208
WIRE 176 -144 160 -144
WIRE 384 -144 384 -208
WIRE 400 -144 384 -144
WIRE -128 -128 -128 -480
WIRE 144 -128 -128 -128
WIRE 192 -128 160 -128
WIRE 400 -128 368 -128
WIRE 480 -128 416 -128
WIRE 736 -128 736 -160
WIRE 176 -112 160 -112
WIRE 192 -112 192 -128
WIRE 192 -112 176 -112
WIRE 368 -112 368 -128
WIRE 384 -112 368 -112
WIRE 400 -112 384 -112
WIRE 176 -80 176 -112
WIRE 288 -80 176 -80
WIRE 384 -80 384 -112
WIRE 384 -80 288 -80
WIRE 480 -48 480 -128
WIRE 480 -48 -224 -48
WIRE 288 -32 288 -80
WIRE 288 -32 272 -32
WIRE 736 -32 736 -64
WIRE -224 -16 -224 -48
WIRE 224 -16 208 -16
WIRE 256 -16 224 -16
WIRE 304 -16 272 -16
WIRE 656 -16 656 -160
WIRE 288 0 272 0
WIRE 304 0 304 -16
WIRE 304 0 288 0
WIRE 640 0 560 0
WIRE 688 0 656 0
WIRE 208 16 128 16
WIRE 688 16 688 0
WIRE 688 16 656 16
WIRE 32 32 32 -224
WIRE 128 32 128 16
WIRE 128 32 32 32
WIRE 128 48 128 32
WIRE 160 48 128 48
WIRE 160 64 128 64
WIRE 208 64 208 16
WIRE 208 64 176 64
WIRE 224 64 224 -16
WIRE 224 64 208 64
WIRE 288 64 288 0
WIRE 448 64 288 64
WIRE 656 64 656 16
WIRE 656 64 448 64
WIRE 128 80 128 64
WIRE 144 80 128 80
WIRE 160 80 144 80
WIRE 144 128 144 80
WIRE 288 128 288 64
WIRE 288 128 144 128
FLAG 416 -384 Vdd
IOPIN 416 -384 In
FLAG 208 -16 Vb
IOPIN 208 -16 In
FLAG 960 -160 Vo
IOPIN 960 -160 Out
FLAG 208 320 Vdd
IOPIN 208 320 In
FLAG 208 400 0
FLAG 560 0 Vb
IOPIN 560 0 In
FLAG 448 64 Vss
IOPIN 448 64 In
FLAG 368 400 0
FLAG 368 320 Vss
IOPIN 368 320 In
FLAG 736 -32 0
FLAG -224 64 0
SYMBOL pmos65 176 -288 M0
WINDOW 3 2 16 Left 0
SYMATTR Value W=10u,L=1u
SYMATTR InstName X1
SYMBOL pmos65 384 -288 R0
WINDOW 3 6 16 Left 0
SYMATTR Value W=10u,L=1u
SYMATTR InstName X2
SYMBOL pmos65 672 -288 R0
WINDOW 3 0 16 Left 0
SYMATTR Value W=90u,L=1u
SYMATTR InstName X3
SYMBOL nmos65 176 -128 R0
WINDOW 3 5 23 Left 0
SYMATTR Value W=3u,L=1u
SYMATTR InstName X4
SYMBOL nmos65 384 -128 M0
WINDOW 3 2 24 Left 0
SYMATTR Value W=3u,L=1u
SYMATTR InstName X5
SYMBOL nmos65 672 0 R0
WINDOW 3 -11 -13 Left 0
SYMATTR Value W=24u,L=1u
SYMATTR InstName X6
SYMBOL nmos65 288 -16 R0
WINDOW 3 4 26 Left 0
SYMATTR Value W=6u,L=1u
SYMATTR InstName X7
SYMBOL cap 592 -224 R90
WINDOW 0 0 32 VBottom 2
WINDOW 3 32 32 VTop 2
SYMATTR InstName C1
SYMATTR Value 3p
SYMBOL voltage 208 304 R0
WINDOW 123 0 0 Left 0
WINDOW 39 0 0 Left 0
SYMATTR InstName V1
SYMATTR Value 1.1
SYMBOL voltage 368 416 R180
WINDOW 0 24 96 Left 2
WINDOW 3 24 16 Left 2
WINDOW 123 0 0 Left 0
WINDOW 39 0 0 Left 0
SYMATTR InstName V2
SYMATTR Value 1.1
SYMBOL current 32 -304 R0
WINDOW 3 -84 47 Left 2
WINDOW 123 0 0 Left 0
WINDOW 39 0 0 Left 0
SYMATTR Value 30µ
SYMATTR InstName I1
SYMBOL nmos65 144 64 M0
WINDOW 3 20 13 Left 0
SYMATTR Value W=6u,L=1u
SYMATTR InstName X8
SYMBOL cap 720 -128 R0
SYMATTR InstName C2
SYMATTR Value 10p
SYMBOL voltage -224 -32 R0
WINDOW 123 0 0 Left 0
WINDOW 39 0 0 Left 0
SYMATTR InstName V3
SYMATTR Value PULSE(0 1.1 0.5u 1p 1p 5u 10u)
TEXT 72 472 Left 2 !.include 65nm_NMOS_bulk.pm
TEXT 72 496 Left 2 !.include 65nm_PMOS_bulk.pm
TEXT -178 212 Left 2 !.tran 6.5u
