Version 4
SHEET 1 880 680
WIRE 224 -656 -736 -656
WIRE -448 -544 -576 -544
WIRE -208 -544 -448 -544
WIRE -192 -544 -192 -560
WIRE -192 -544 -208 -544
WIRE 80 -544 -192 -544
WIRE -736 -496 -736 -656
WIRE -576 -480 -576 -544
WIRE -448 -480 -448 -544
WIRE -416 -480 -448 -480
WIRE -208 -480 -208 -544
WIRE -208 -480 -240 -480
WIRE 80 -480 80 -544
WIRE 80 -480 48 -480
WIRE -448 -464 -448 -480
WIRE -416 -464 -448 -464
WIRE -320 -464 -400 -464
WIRE -256 -464 -320 -464
WIRE -208 -464 -208 -480
WIRE -208 -464 -240 -464
WIRE 32 -464 -128 -464
WIRE 80 -464 80 -480
WIRE 80 -464 48 -464
WIRE -416 -448 -432 -448
WIRE -224 -448 -240 -448
WIRE -432 -384 -432 -448
WIRE -320 -384 -320 -464
WIRE -320 -384 -432 -384
WIRE -224 -384 -224 -448
WIRE -128 -384 -128 -464
WIRE -128 -384 -224 -384
WIRE -80 -384 -128 -384
WIRE 48 -384 48 -448
WIRE 48 -384 -16 -384
WIRE 48 -336 48 -384
WIRE 128 -336 48 -336
WIRE 224 -336 224 -656
WIRE 224 -336 128 -336
WIRE 352 -336 224 -336
WIRE -432 -320 -432 -384
WIRE -432 -320 -448 -320
WIRE -224 -320 -224 -384
WIRE -208 -320 -224 -320
WIRE -896 -304 -976 -304
WIRE -736 -304 -736 -416
WIRE -736 -304 -816 -304
WIRE -464 -304 -736 -304
WIRE -416 -304 -448 -304
WIRE -208 -304 -240 -304
WIRE -128 -304 -192 -304
WIRE 128 -304 128 -336
WIRE -432 -288 -448 -288
WIRE -416 -288 -416 -304
WIRE -416 -288 -432 -288
WIRE -240 -288 -240 -304
WIRE -224 -288 -240 -288
WIRE -208 -288 -224 -288
WIRE -976 -256 -976 -304
WIRE -976 -256 -1104 -256
WIRE -432 -256 -432 -288
WIRE -320 -256 -432 -256
WIRE -224 -256 -224 -288
WIRE -224 -256 -320 -256
WIRE -976 -224 -976 -256
WIRE -896 -224 -976 -224
WIRE -752 -224 -816 -224
WIRE -128 -224 -128 -304
WIRE -128 -224 -752 -224
WIRE -320 -208 -320 -256
WIRE -320 -208 -336 -208
WIRE 128 -208 128 -240
WIRE -384 -192 -400 -192
WIRE -352 -192 -384 -192
WIRE -304 -192 -336 -192
WIRE 48 -192 48 -336
WIRE -1104 -176 -1104 -256
WIRE -320 -176 -336 -176
WIRE -304 -176 -304 -192
WIRE -304 -176 -320 -176
WIRE 32 -176 -48 -176
WIRE 80 -176 48 -176
WIRE -400 -160 -480 -160
WIRE 80 -160 80 -176
WIRE 80 -160 48 -160
WIRE -752 -144 -752 -224
WIRE -576 -144 -576 -400
WIRE -480 -144 -480 -160
WIRE -480 -144 -576 -144
WIRE -480 -128 -480 -144
WIRE -448 -128 -480 -128
WIRE -448 -112 -480 -112
WIRE -400 -112 -400 -160
WIRE -400 -112 -432 -112
WIRE -384 -112 -384 -192
WIRE -384 -112 -400 -112
WIRE -320 -112 -320 -176
WIRE -160 -112 -320 -112
WIRE 48 -112 48 -160
WIRE 48 -112 -160 -112
WIRE -480 -96 -480 -112
WIRE -464 -96 -480 -96
WIRE -448 -96 -464 -96
WIRE -464 -48 -464 -96
WIRE -320 -48 -320 -112
WIRE -320 -48 -464 -48
FLAG -192 -560 Vdd
IOPIN -192 -560 In
FLAG -400 -192 Vb
IOPIN -400 -192 In
FLAG 352 -336 Vo
IOPIN 352 -336 Out
FLAG -400 144 Vdd
IOPIN -400 144 In
FLAG -400 224 0
FLAG -48 -176 Vb
IOPIN -48 -176 In
FLAG -160 -112 Vss
IOPIN -160 -112 In
FLAG -240 224 0
FLAG -240 144 Vss
IOPIN -240 144 In
FLAG 128 -208 0
FLAG -752 -64 0
FLAG -1104 -96 0
SYMBOL pmos65 -432 -464 M0
WINDOW 3 2 16 Left 0
SYMATTR Value W=10u,L=1u
SYMATTR InstName X1
SYMBOL pmos65 -224 -464 R0
WINDOW 3 6 16 Left 0
SYMATTR Value W=10u,L=1u
SYMATTR InstName X2
SYMBOL pmos65 64 -464 R0
WINDOW 3 0 16 Left 0
SYMATTR Value W=90u,L=1u
SYMATTR InstName X3
SYMBOL nmos65 -432 -304 R0
WINDOW 3 5 23 Left 0
SYMATTR Value W=3u,L=1u
SYMATTR InstName X4
SYMBOL nmos65 -224 -304 M0
WINDOW 3 2 24 Left 0
SYMATTR Value W=3u,L=1u
SYMATTR InstName X5
SYMBOL nmos65 64 -176 R0
WINDOW 3 -11 -13 Left 0
SYMATTR Value W=24u,L=1u
SYMATTR InstName X6
SYMBOL nmos65 -320 -192 R0
WINDOW 3 4 26 Left 0
SYMATTR Value W=6u,L=1u
SYMATTR InstName X7
SYMBOL cap -16 -400 R90
WINDOW 0 0 32 VBottom 2
WINDOW 3 32 32 VTop 2
SYMATTR InstName C1
SYMATTR Value 3p
SYMBOL voltage -400 128 R0
WINDOW 123 0 0 Left 0
WINDOW 39 0 0 Left 0
SYMATTR InstName V1
SYMATTR Value 1.1
SYMBOL voltage -240 240 R180
WINDOW 0 24 96 Left 2
WINDOW 3 24 16 Left 2
WINDOW 123 0 0 Left 0
WINDOW 39 0 0 Left 0
SYMATTR InstName V2
SYMATTR Value 1.1
SYMBOL current -576 -480 R0
WINDOW 3 -84 47 Left 2
WINDOW 123 0 0 Left 0
WINDOW 39 0 0 Left 0
SYMATTR Value 30µ
SYMATTR InstName I1
SYMBOL nmos65 -464 -112 M0
WINDOW 3 20 13 Left 0
SYMATTR Value W=6u,L=1u
SYMATTR InstName X8
SYMBOL cap 112 -304 R0
SYMATTR InstName C2
SYMATTR Value 10p
SYMBOL res -800 -320 R90
WINDOW 0 0 56 VBottom 2
WINDOW 3 32 56 VTop 2
SYMATTR InstName R1
SYMATTR Value 1Meg
SYMBOL res -720 -400 R180
WINDOW 0 36 76 Left 2
WINDOW 3 36 40 Left 2
SYMATTR InstName R2
SYMATTR Value 1Meg
SYMBOL res -912 -208 R270
WINDOW 0 32 56 VTop 2
WINDOW 3 0 56 VBottom 2
SYMATTR InstName R3
SYMATTR Value 1Meg
SYMBOL res -768 -160 R0
SYMATTR InstName R4
SYMATTR Value 1Meg
SYMBOL voltage -1104 -192 R0
WINDOW 3 24 44 Left 2
WINDOW 123 24 72 Left 2
WINDOW 39 0 0 Left 0
SYMATTR Value 0.55
SYMATTR Value2 AC 0.5
SYMATTR InstName V3
TEXT -536 296 Left 2 !.include 65nm_NMOS_bulk.pm
TEXT -536 320 Left 2 !.include 65nm_PMOS_bulk.pm
TEXT -632 168 Left 2 !.ac dec 100 1 1G
