Version 4
SHEET 1 984 680
WIRE 720 -16 -464 -16
WIRE -208 96 -304 96
WIRE -96 96 -208 96
WIRE 0 96 -96 96
WIRE 32 96 0 96
WIRE 144 96 32 96
WIRE 224 96 144 96
WIRE 656 96 224 96
WIRE 224 128 224 96
WIRE -208 144 -208 96
WIRE -96 144 -96 96
WIRE 0 144 0 96
WIRE 0 144 -16 144
WIRE 144 144 144 96
WIRE 160 144 144 144
WIRE -304 160 -304 96
WIRE -16 160 -16 144
WIRE 0 160 -16 160
WIRE 48 160 16 160
WIRE 128 160 48 160
WIRE 160 160 160 144
WIRE 160 160 144 160
WIRE 656 160 656 96
WIRE 672 160 656 160
WIRE 448 176 384 176
WIRE 528 176 448 176
WIRE 640 176 528 176
WIRE 672 176 672 160
WIRE 672 176 656 176
WIRE 0 208 0 176
WIRE 48 208 48 160
WIRE 48 208 0 208
WIRE 144 224 144 176
WIRE 384 224 384 176
WIRE 384 224 144 224
WIRE 0 240 0 208
WIRE 144 240 144 224
WIRE 448 240 448 176
WIRE 656 240 656 192
WIRE 656 240 528 240
WIRE 720 240 720 -16
WIRE 720 240 656 240
WIRE 768 240 720 240
WIRE -16 256 -48 256
WIRE 16 256 0 256
WIRE 144 256 128 256
WIRE 224 256 224 208
WIRE 224 256 160 256
WIRE 256 256 224 256
WIRE 352 256 320 256
WIRE 384 256 352 256
WIRE -208 272 -208 224
WIRE 16 272 16 256
WIRE 16 272 0 272
WIRE 128 272 128 256
WIRE 144 272 128 272
WIRE 720 272 720 240
WIRE 224 288 224 256
WIRE 352 288 352 256
WIRE 656 288 656 240
WIRE -464 304 -464 -16
WIRE -416 304 -464 304
WIRE -304 304 -304 240
WIRE -304 304 -352 304
WIRE -48 304 -48 256
WIRE -48 304 -304 304
WIRE 640 304 608 304
WIRE 672 304 656 304
WIRE -96 320 -96 224
WIRE -48 320 -96 320
WIRE 0 320 0 272
WIRE 80 320 0 320
WIRE 144 320 144 272
WIRE 144 320 80 320
WIRE 672 320 672 304
WIRE 672 320 656 320
WIRE -304 352 -304 304
WIRE -96 352 -96 320
WIRE 80 352 80 320
WIRE 448 352 448 304
WIRE -96 368 -112 368
WIRE -48 368 -48 320
WIRE -48 368 -80 368
WIRE -16 368 -48 368
WIRE 64 368 -16 368
WIRE 96 368 80 368
WIRE 656 368 656 320
WIRE 720 368 720 336
WIRE -112 384 -112 368
WIRE -96 384 -112 384
WIRE 96 384 96 368
WIRE 96 384 80 384
WIRE 352 400 352 368
WIRE 224 416 224 368
WIRE -96 448 -96 384
WIRE 80 448 80 384
WIRE -304 480 -304 432
WIRE -16 496 -16 368
WIRE 608 496 608 304
WIRE 608 496 -16 496
FLAG 80 448 0
FLAG -96 448 0
FLAG 32 96 VDD
IOPIN 32 96 BiDir
FLAG -208 272 0
FLAG 224 416 0
FLAG 352 400 0
FLAG 656 368 0
FLAG 720 368 0
FLAG 768 240 out
IOPIN 768 240 Out
FLAG 384 256 in
IOPIN 384 256 In
FLAG 448 352 0
FLAG -304 480 0
SYMBOL current -96 144 R0
WINDOW 123 0 0 Left 0
WINDOW 39 0 0 Left 0
SYMATTR InstName I1
SYMATTR Value 100µ
SYMBOL voltage -208 128 R0
WINDOW 123 0 0 Left 0
WINDOW 39 0 0 Left 0
SYMATTR InstName VDD
SYMATTR Value 1.1V
SYMBOL res 208 112 R0
SYMATTR InstName R1
SYMATTR Value 1k
SYMBOL res 208 272 R0
SYMATTR InstName R2
SYMATTR Value 1k
SYMBOL cap 320 240 R90
WINDOW 0 0 32 VBottom 2
WINDOW 3 32 32 VTop 2
SYMATTR InstName C1
SYMATTR Value 100µ
SYMBOL voltage 352 272 R0
WINDOW 123 24 124 Left 2
WINDOW 39 0 0 Left 0
SYMATTR InstName Vin1
SYMATTR Value ""
SYMATTR Value2 AC
SYMBOL cap 704 272 R0
SYMATTR InstName CL
SYMATTR Value 10p
SYMBOL nmos65 96 368 R0
WINDOW 39 0 0 Left 0
SYMATTR InstName X1
SYMATTR SpiceLine W = 13u  L = 1u
SYMBOL nmos65 16 256 R0
WINDOW 39 0 0 Left 0
SYMATTR InstName X2
SYMATTR SpiceLine W = 36.7u L = 0.54u
SYMBOL nmos65 672 304 R0
WINDOW 39 0 0 Left 0
SYMATTR InstName X3
SYMATTR SpiceLine W = 119u L = 0.54u
SYMBOL nmos65 -112 368 M0
WINDOW 39 0 0 Left 0
SYMATTR InstName X4
SYMATTR SpiceLine W = 13u L = 1u
SYMBOL nmos65 128 256 M0
WINDOW 39 0 0 Left 0
SYMATTR InstName X5
SYMATTR SpiceLine W = 36.7u L = 0.54u
SYMBOL pmos65 -16 160 M0
WINDOW 39 0 0 Left 0
SYMATTR InstName X6
SYMATTR SpiceLine W = 10u L = 0.54u
SYMBOL pmos65 160 160 R0
WINDOW 39 0 0 Left 0
SYMATTR InstName X7
SYMATTR SpiceLine W = 10u L = 0.54u
SYMBOL pmos65 672 176 R0
WINDOW 39 0 0 Left 0
SYMATTR InstName X8
SYMATTR SpiceLine W = 305u L = 0.54u
SYMBOL cap 432 240 R0
SYMATTR InstName C2
SYMATTR Value 4p
SYMBOL res -320 144 R0
SYMATTR InstName R3
SYMATTR Value 1k
SYMBOL res -320 336 R0
SYMATTR InstName R4
SYMATTR Value 1k
SYMBOL cap -352 288 R90
WINDOW 0 0 32 VBottom 2
WINDOW 3 32 32 VTop 2
SYMATTR InstName C3
SYMATTR Value 40µ
SYMBOL cap 512 176 R0
SYMATTR InstName Cc
SYMATTR Value 2.3p
TEXT -242 534 Left 2 !.ac dec 10 100 1G
