Version 4
SHEET 1 880 680
WIRE 272 -272 32 -272
WIRE 288 -272 288 -336
WIRE 288 -272 272 -272
WIRE 560 -272 288 -272
WIRE 32 -208 32 -272
WIRE 64 -208 32 -208
WIRE 272 -208 272 -272
WIRE 272 -208 240 -208
WIRE 560 -208 560 -272
WIRE 560 -208 528 -208
WIRE 32 -192 32 -208
WIRE 64 -192 32 -192
WIRE 160 -192 80 -192
WIRE 224 -192 160 -192
WIRE 272 -192 272 -208
WIRE 272 -192 240 -192
WIRE 512 -192 352 -192
WIRE 560 -192 560 -208
WIRE 560 -192 528 -192
WIRE 64 -176 48 -176
WIRE 256 -176 240 -176
WIRE 48 -112 48 -176
WIRE 160 -112 160 -192
WIRE 160 -112 48 -112
WIRE 256 -112 256 -176
WIRE 352 -112 352 -192
WIRE 352 -112 256 -112
WIRE 400 -112 352 -112
WIRE 528 -112 528 -176
WIRE 528 -112 464 -112
WIRE 528 -64 528 -112
WIRE 608 -64 528 -64
WIRE 672 -64 608 -64
WIRE 48 -48 48 -112
WIRE 48 -48 32 -48
WIRE 256 -48 256 -112
WIRE 272 -48 256 -48
WIRE 16 -32 -32 -32
WIRE 64 -32 32 -32
WIRE 272 -32 240 -32
WIRE 336 -32 288 -32
WIRE 608 -32 608 -64
WIRE 48 -16 32 -16
WIRE 64 -16 64 -32
WIRE 64 -16 48 -16
WIRE 240 -16 240 -32
WIRE 256 -16 240 -16
WIRE 272 -16 256 -16
WIRE 48 16 48 -16
WIRE 160 16 48 16
WIRE 256 16 256 -16
WIRE 256 16 160 16
WIRE 160 64 160 16
WIRE 160 64 144 64
WIRE 608 64 608 32
WIRE 96 80 80 80
WIRE 128 80 96 80
WIRE 176 80 144 80
WIRE 528 80 528 -64
WIRE 160 96 144 96
WIRE 176 96 176 80
WIRE 176 96 160 96
WIRE 512 96 432 96
WIRE 560 96 528 96
WIRE 80 112 0 112
WIRE 560 112 560 96
WIRE 560 112 528 112
WIRE 0 144 0 112
WIRE 0 144 -16 144
WIRE 32 144 0 144
WIRE -64 160 -64 144
WIRE -16 160 -16 144
WIRE -16 160 -64 160
WIRE 32 160 0 160
WIRE 80 160 80 112
WIRE 80 160 48 160
WIRE 96 160 96 80
WIRE 96 160 80 160
WIRE 160 160 160 96
WIRE 320 160 160 160
WIRE 528 160 528 112
WIRE 528 160 320 160
WIRE 0 176 0 160
WIRE 16 176 0 176
WIRE 32 176 16 176
WIRE 16 224 16 176
WIRE 160 224 160 160
WIRE 160 224 16 224
FLAG 288 -336 Vdd
IOPIN 288 -336 In
FLAG -32 -32 V1
IOPIN -32 -32 In
FLAG 336 -32 V2
IOPIN 336 -32 In
FLAG 80 80 Vb
IOPIN 80 80 In
FLAG 672 -64 Vo
IOPIN 672 -64 Out
FLAG 48 304 Vdd
IOPIN 48 304 In
FLAG 208 304 V1
IOPIN 208 304 In
FLAG 368 304 V2
IOPIN 368 304 In
FLAG 368 384 0
FLAG 48 384 0
FLAG 432 96 Vb
IOPIN 432 96 In
FLAG 320 160 Vss
IOPIN 320 160 In
FLAG 560 384 0
FLAG 560 304 Vss
IOPIN 560 304 In
FLAG -64 64 Vdd
IOPIN -64 64 In
FLAG 608 64 0
FLAG 208 384 V2
IOPIN 208 384 In
SYMBOL pmos65 48 -192 M0
WINDOW 3 2 16 Left 0
SYMATTR Value W=30u,L=1u
SYMATTR InstName X1
SYMBOL pmos65 256 -192 R0
WINDOW 3 6 16 Left 0
SYMATTR Value W=30u,L=1u
SYMATTR InstName X2
SYMBOL pmos65 544 -192 R0
WINDOW 3 0 16 Left 0
SYMATTR Value W=130u,L=1u
SYMATTR InstName X3
SYMBOL nmos65 48 -32 R0
WINDOW 3 5 23 Left 0
SYMATTR Value W=3u,L=1u
SYMATTR InstName X4
SYMBOL nmos65 256 -32 M0
WINDOW 3 2 24 Left 0
SYMATTR Value W=3u,L=1u
SYMATTR InstName X5
SYMBOL nmos65 544 96 R0
WINDOW 3 -11 -13 Left 0
SYMATTR Value W=4u,L=1u
SYMATTR InstName X6
SYMBOL nmos65 160 80 R0
WINDOW 3 4 26 Left 0
SYMATTR Value W=4u,L=1u
SYMATTR InstName X7
SYMBOL cap 464 -128 R90
WINDOW 0 0 32 VBottom 2
WINDOW 3 32 32 VTop 2
SYMATTR InstName C1
SYMATTR Value 3p
SYMBOL voltage 48 288 R0
WINDOW 123 0 0 Left 0
WINDOW 39 0 0 Left 0
SYMATTR InstName V1
SYMATTR Value 1.1
SYMBOL voltage 208 288 R0
WINDOW 3 0 163 Left 2
WINDOW 123 -60 159 Left 2
WINDOW 39 0 0 Left 0
SYMATTR Value SINE(0.55 0.1 1k)
SYMATTR Value2 AC 1
SYMATTR InstName V2
SYMBOL voltage 368 288 R0
WINDOW 123 0 0 Left 0
WINDOW 39 0 0 Left 0
SYMATTR InstName V3
SYMATTR Value 0.55
SYMBOL voltage 560 400 R180
WINDOW 0 24 96 Left 2
WINDOW 3 24 16 Left 2
WINDOW 123 0 0 Left 0
WINDOW 39 0 0 Left 0
SYMATTR InstName V4
SYMATTR Value 1.1
SYMBOL current -64 64 R0
WINDOW 3 -84 47 Left 2
WINDOW 123 0 0 Left 0
WINDOW 39 0 0 Left 0
SYMATTR Value 30µ
SYMATTR InstName I1
SYMBOL nmos65 16 160 M0
WINDOW 3 20 13 Left 0
SYMATTR Value W=4u,L=1u
SYMATTR InstName X8
SYMBOL cap 592 -32 R0
SYMATTR InstName C2
SYMATTR Value 10p
TEXT 200 208 Left 2 !.include 65nm_NMOS_bulk.pm
TEXT 200 232 Left 2 !.include 65nm_PMOS_bulk.pm
TEXT -152 440 Left 2 !.ac dec 100 1 1G
