Version 4
SHEET 1 880 756
WIRE -608 -16 -608 -32
WIRE -608 -16 -656 -16
WIRE -544 -16 -608 -16
WIRE -544 0 -544 -16
WIRE -656 16 -656 -16
WIRE -992 32 -992 16
WIRE -992 32 -1040 32
WIRE -928 32 -992 32
WIRE -928 48 -928 32
WIRE -1040 64 -1040 32
WIRE -544 112 -544 80
WIRE -496 112 -544 112
WIRE -544 144 -544 112
WIRE -928 160 -928 128
WIRE -880 160 -928 160
WIRE -656 160 -656 96
WIRE -656 160 -816 160
WIRE -560 160 -656 160
WIRE -512 160 -544 160
WIRE -544 176 -560 176
WIRE -512 176 -512 160
WIRE -512 176 -544 176
WIRE -928 192 -928 160
WIRE -1168 208 -1280 208
WIRE -1040 208 -1040 144
WIRE -1040 208 -1104 208
WIRE -944 208 -1040 208
WIRE -896 208 -928 208
WIRE -928 224 -944 224
WIRE -896 224 -896 208
WIRE -896 224 -928 224
WIRE -656 224 -656 160
WIRE -544 224 -544 176
WIRE -1040 272 -1040 208
WIRE -928 272 -928 224
WIRE -1280 288 -1280 208
WIRE -432 288 -432 112
WIRE -432 288 -544 288
WIRE -336 288 -432 288
WIRE -656 320 -656 304
WIRE -1040 368 -1040 352
WIRE -544 400 -544 288
WIRE -944 432 -992 432
WIRE -432 432 -432 416
WIRE -192 448 -192 416
WIRE -144 448 -192 448
WIRE -32 448 -32 368
WIRE -32 448 -80 448
WIRE -992 464 -992 432
WIRE -992 464 -1040 464
WIRE -32 480 -32 448
WIRE -192 512 -192 448
WIRE -336 528 -336 288
WIRE -208 528 -336 528
WIRE -160 528 -192 528
WIRE -432 544 -432 512
WIRE -432 544 -512 544
WIRE -160 544 -160 528
WIRE -160 544 -192 544
WIRE -544 592 -544 480
WIRE -512 592 -512 544
WIRE -512 592 -544 592
WIRE -432 592 -432 544
WIRE -192 592 -192 544
WIRE -32 592 -32 560
WIRE -512 608 -512 592
WIRE -448 608 -512 608
WIRE -400 608 -432 608
WIRE -400 624 -400 608
WIRE -400 624 -432 624
WIRE -432 688 -432 624
FLAG -944 512 0
FLAG -1040 464 Vsupp
IOPIN -1040 464 In
FLAG -928 272 0
FLAG -992 16 Vsupp
IOPIN -992 16 In
FLAG -1040 368 0
FLAG -1280 368 0
FLAG -544 224 0
FLAG -608 -32 Vsupp
IOPIN -608 -32 In
FLAG -656 320 0
FLAG -432 416 Vsupp
IOPIN -432 416 In
FLAG -432 688 0
FLAG -192 592 0
FLAG -32 592 0
FLAG -192 336 Vsupp
IOPIN -192 336 In
FLAG -32 368 Vout
IOPIN -32 368 Out
FLAG -1280 208 Vin
IOPIN -1280 208 In
SYMBOL voltage -944 416 R0
WINDOW 123 0 0 Left 0
WINDOW 39 0 0 Left 0
SYMATTR InstName V1
SYMATTR Value 1.1
SYMBOL nmos65 -912 208 R0
WINDOW 39 0 0 Left 0
SYMATTR InstName X1
SYMATTR SpiceLine L=1u W=2u M=1
SYMBOL res -1056 48 R0
SYMATTR InstName R1
SYMATTR Value 100k
SYMBOL res -1056 256 R0
SYMATTR InstName R2
SYMATTR Value 100k
SYMBOL res -944 32 R0
SYMATTR InstName R3
SYMATTR Value 45k
SYMBOL cap -1104 192 R90
WINDOW 0 0 32 VBottom 2
WINDOW 3 32 32 VTop 2
SYMATTR InstName C1
SYMATTR Value 10µ
SYMBOL voltage -1280 272 R0
WINDOW 123 39 49 Left 2
WINDOW 39 33 72 Left 2
SYMATTR InstName V2
SYMATTR Value SINE(0 1m 1k)
SYMATTR Value2 AC 1
SYMATTR SpiceLine Rser=1k
SYMBOL cap -816 144 R90
WINDOW 0 0 32 VBottom 2
WINDOW 3 32 32 VTop 2
SYMATTR InstName C2
SYMATTR Value 1µ
SYMBOL nmos65 -528 160 R0
WINDOW 39 0 0 Left 0
SYMATTR InstName X2
SYMATTR SpiceLine L=1u W=2u M=1
SYMBOL res -672 0 R0
SYMATTR InstName R5
SYMATTR Value 200k
SYMBOL res -672 208 R0
SYMATTR InstName R6
SYMATTR Value 200k
SYMBOL res -560 -16 R0
SYMATTR InstName R7
SYMATTR Value 45k
SYMBOL cap -432 96 R90
WINDOW 0 0 32 VBottom 2
WINDOW 3 32 32 VTop 2
SYMATTR InstName C3
SYMATTR Value 10µ
SYMBOL current -432 432 R0
WINDOW 123 0 0 Left 0
WINDOW 39 0 0 Left 0
SYMATTR InstName I1
SYMATTR Value 10µ
SYMBOL nmos65 -416 608 R0
WINDOW 39 0 0 Left 0
SYMATTR InstName X3
SYMATTR SpiceLine L=0.8u W=20m M=1
SYMBOL nmos65 -176 528 R0
WINDOW 39 0 0 Left 0
SYMATTR InstName X4
SYMATTR SpiceLine L=0.8u W=20m M=1
SYMBOL res -560 384 R0
SYMATTR InstName R8
SYMATTR Value 1Meg
SYMBOL cap -80 432 R90
WINDOW 0 0 32 VBottom 2
WINDOW 3 32 32 VTop 2
SYMATTR InstName C4
SYMATTR Value 10µ
SYMBOL res -48 464 R0
SYMATTR InstName R9
SYMATTR Value 50
SYMBOL res -208 320 R0
SYMATTR InstName R10
SYMATTR Value 1k
TEXT -1040 592 Left 2 !.include 65nm_NMOS_bulk.pm
TEXT -1042 560 Left 2 !.tran 0 10m 2m
TEXT -1034 624 Left 2 !;ac dec 1000 10 100k
TEXT -1040 656 Left 2 !.four 1k 6 V(Vout)
